Version 4
SHEET 1 1056 680
WIRE 16 16 -16 16
WIRE 176 16 16 16
WIRE 336 16 176 16
WIRE -16 48 -16 16
WIRE 176 48 176 16
WIRE 336 112 336 16
WIRE -16 144 -16 128
WIRE 176 160 176 128
WIRE 256 160 176 160
WIRE 272 160 256 160
WIRE 128 224 80 224
WIRE 176 256 176 240
WIRE -112 288 -128 288
WIRE -32 288 -112 288
WIRE 80 288 80 224
WIRE 80 288 32 288
WIRE 176 288 176 256
WIRE 336 288 336 208
WIRE 336 288 176 288
WIRE 368 288 336 288
WIRE 480 288 448 288
WIRE 592 288 544 288
WIRE 176 304 176 288
WIRE 592 304 592 288
WIRE -112 320 -112 288
WIRE 80 336 80 288
WIRE 336 368 336 288
WIRE 368 368 336 368
WIRE 480 368 480 288
WIRE 480 368 432 368
WIRE 176 400 176 384
WIRE 592 416 592 384
WIRE 80 432 80 416
WIRE -112 448 -112 400
WIRE 176 496 176 480
FLAG -16 144 0
FLAG 176 496 0
FLAG -128 288 in
FLAG 16 16 vcc
FLAG 256 160 pb
FLAG 80 432 0
FLAG 592 416 0
FLAG -112 448 0
SYMBOL res 160 32 R0
SYMATTR InstName R1
SYMATTR Value 470
SYMATTR SpiceLine tol=1 pwr=0.1
SYMBOL res 160 384 R0
WINDOW 0 41 27 Left 2
WINDOW 3 42 60 Left 2
SYMATTR InstName R2
SYMATTR Value 90
SYMATTR SpiceLine tol=1 pwr=0.1
SYMBOL voltage -112 304 R0
WINDOW 3 24 44 Left 2
WINDOW 123 42 97 Left 2
WINDOW 39 24 44 Left 2
SYMATTR Value ""
SYMATTR Value2 AC .01
SYMATTR InstName V1
SYMBOL njf 128 160 R0
SYMATTR InstName J1
SYMATTR Value J310
SYMBOL voltage -16 32 R0
WINDOW 123 0 0 Left 0
WINDOW 39 24 124 Left 2
SYMATTR InstName V4
SYMATTR Value 4.7
SYMBOL res 64 320 R0
WINDOW 0 4 144 Left 2
WINDOW 3 -12 168 Left 2
SYMATTR InstName R3
SYMATTR Value 4.7e6
SYMBOL cap 32 272 R90
WINDOW 0 0 32 VBottom 2
WINDOW 3 32 32 VTop 2
SYMATTR InstName C1
SYMATTR Value 0.1µ
SYMATTR SpiceLine V=4 Irms=0 Rser=0 Lser=0 mfg="Murata" pn="GRM011R60G103KE01" type="X5R"
SYMBOL cap 544 272 R90
WINDOW 0 0 32 VBottom 2
WINDOW 3 32 32 VTop 2
SYMATTR InstName C2
SYMATTR Value 10µ
SYMBOL pnp 272 208 M180
SYMATTR InstName Q1
SYMATTR Value 2N5087
SYMBOL res 464 272 R90
WINDOW 0 -1 58 VBottom 2
WINDOW 3 32 56 VTop 2
SYMATTR InstName R4
SYMATTR Value 47
SYMBOL ind 160 288 R0
SYMATTR InstName L1
SYMATTR Value 1.2µH
SYMBOL cap 432 352 R90
WINDOW 0 0 32 VBottom 2
WINDOW 3 32 32 VTop 2
SYMATTR InstName C5
SYMATTR Value 100p
SYMBOL res 576 288 R0
SYMATTR InstName R7
SYMATTR Value 50
TEXT 480 192 Left 2 !;op dec 25 1e6 30e6
TEXT 480 112 Left 2 !.ac dec 25 1e6 40e6
TEXT 480 152 Left 2 !;tran 0 .0003 0
TEXT 480 72 Left 2 !.step param Le .1uh 1.2uh .1uh
